4jia_ligand
     RDKit          3D

 58 62  0  0  0  0  0  0  0  0999 V2000
   16.1070  -20.6440  -22.2030 C   0  0  0  0  0  0  0  0  0  0  0  0
   15.0440  -21.5420  -22.5170 O   0  0  0  0  0  0  0  0  0  0  0  0
   14.9850  -22.8060  -21.9640 C   0  0  0  0  0  0  0  0  0  0  0  0
   15.9480  -23.3070  -21.0710 C   0  0  0  0  0  0  0  0  0  0  0  0
   15.8270  -24.5960  -20.5450 C   0  0  0  0  0  0  0  0  0  0  0  0
   13.8990  -23.6060  -22.3090 C   0  0  0  0  0  0  0  0  0  0  0  0
   13.7820  -24.8880  -21.7900 C   0  0  0  0  0  0  0  0  0  0  0  0
   14.7250  -25.3910  -20.8850 C   0  0  0  0  0  0  0  0  0  0  0  0
   14.5440  -26.7820  -20.3770 C   0  0  0  0  0  0  0  0  0  0  0  0
   15.6440  -27.6260  -20.2580 C   0  0  0  0  0  0  0  0  0  0  0  0
   13.3250  -27.2530  -20.0470 N   0  0  0  0  0  0  0  0  0  0  0  0
   12.1690  -26.4910  -20.1290 N   0  0  0  0  0  0  0  0  0  0  0  0
   11.2730  -27.3850  -19.7040 C   0  0  0  0  0  0  0  0  0  0  0  0
   11.7880  -28.5990  -19.3970 N   0  0  0  0  0  0  0  0  0  0  0  0
   13.1180  -28.5000  -19.6260 C   0  0  0  0  0  0  0  0  0  0  0  0
   14.1860  -29.3710  -19.4860 C   0  0  0  0  0  0  0  0  0  0  0  0
   15.4630  -28.9250  -19.8120 C   0  0  0  0  0  0  0  0  0  0  0  0
    9.9260  -27.1420  -19.6110 N   0  0  0  0  0  0  0  0  0  0  0  0
    9.2210  -26.0320  -19.9770 C   0  0  0  0  0  0  0  0  0  0  0  0
    9.8100  -24.8750  -20.4570 C   0  0  0  0  0  0  0  0  0  0  0  0
    9.0440  -23.7710  -20.7880 C   0  0  0  0  0  0  0  0  0  0  0  0
    7.6540  -23.7810  -20.6510 C   0  0  0  0  0  0  0  0  0  0  0  0
    7.0630  -24.9520  -20.1600 C   0  0  0  0  0  0  0  0  0  0  0  0
    7.8410  -26.0580  -19.8330 C   0  0  0  0  0  0  0  0  0  0  0  0
    6.9100  -22.6710  -20.9930 N   0  0  0  0  0  0  0  0  0  0  0  0
    7.5790  -21.4630  -21.4850 C   0  0  0  0  0  0  0  0  0  0  0  0
    6.7810  -20.8790  -22.6370 C   0  0  0  0  0  0  0  0  0  0  0  0
    5.4620  -20.6230  -22.0870 N   0  0  0  0  0  0  0  0  0  0  0  0
    4.7340  -19.7480  -23.0000 C   0  0  0  0  0  0  0  0  0  0  0  0
    4.7730  -21.8990  -21.9650 C   0  0  0  0  0  0  0  0  0  0  0  0
    5.4500  -22.6560  -20.8240 C   0  0  0  0  0  0  0  0  0  0  0  0
   16.1115  -20.4491  -21.1306 H   0  0  0  0  0  0  0  0  0  0  0  0
   17.0570  -21.0908  -22.4963 H   0  0  0  0  0  0  0  0  0  0  0  0
   15.9620  -19.7083  -22.7430 H   0  0  0  0  0  0  0  0  0  0  0  0
   16.7964  -22.6847  -20.7864 H   0  0  0  0  0  0  0  0  0  0  0  0
   16.5904  -24.9829  -19.8700 H   0  0  0  0  0  0  0  0  0  0  0  0
   13.1378  -23.2241  -22.9893 H   0  0  0  0  0  0  0  0  0  0  0  0
   12.9421  -25.5137  -22.0919 H   0  0  0  0  0  0  0  0  0  0  0  0
   16.6410  -27.2675  -20.5139 H   0  0  0  0  0  0  0  0  0  0  0  0
   14.0287  -30.3880  -19.1267 H   0  0  0  0  0  0  0  0  0  0  0  0
   16.3175  -29.5950  -19.7168 H   0  0  0  0  0  0  0  0  0  0  0  0
    9.3720  -27.8993  -19.2111 H   0  0  0  0  0  0  0  0  0  0  0  0
   10.8927  -24.8329  -20.5760 H   0  0  0  0  0  0  0  0  0  0  0  0
    9.5362  -22.8740  -21.1639 H   0  0  0  0  0  0  0  0  0  0  0  0
    5.9814  -24.9973  -20.0327 H   0  0  0  0  0  0  0  0  0  0  0  0
    7.3584  -26.9603  -19.4573 H   0  0  0  0  0  0  0  0  0  0  0  0
    8.5820  -21.7164  -21.8283 H   0  0  0  0  0  0  0  0  0  0  0  0
    7.6463  -20.7307  -20.6805 H   0  0  0  0  0  0  0  0  0  0  0  0
    6.7396  -21.5604  -23.4868 H   0  0  0  0  0  0  0  0  0  0  0  0
    7.2398  -19.9705  -23.0273 H   0  0  0  0  0  0  0  0  0  0  0  0
    5.5253  -20.1732  -21.1737 H   0  0  0  0  0  0  0  0  0  0  0  0
    5.2768  -18.8094  -23.1120 H   0  0  0  0  0  0  0  0  0  0  0  0
    4.6420  -20.2342  -23.9712 H   0  0  0  0  0  0  0  0  0  0  0  0
    3.7412  -19.5491  -22.5964 H   0  0  0  0  0  0  0  0  0  0  0  0
    4.8335  -22.4636  -22.8954 H   0  0  0  0  0  0  0  0  0  0  0  0
    3.7134  -21.7500  -21.7574 H   0  0  0  0  0  0  0  0  0  0  0  0
    5.2124  -22.1569  -19.8845 H   0  0  0  0  0  0  0  0  0  0  0  0
    5.0880  -23.6841  -20.8239 H   0  0  0  0  0  0  0  0  0  0  0  0
  1  2  1  0
  2  3  1  0
  3  4  2  0
  3  6  1  0
  4  5  1  0
  5  8  2  0
  6  7  2  0
  7  8  1  0
  8  9  1  0
  9 10  2  0
  9 11  1  0
 10 17  1  0
 11 12  1  0
 11 15  1  0
 12 13  2  0
 13 14  1  0
 13 18  1  0
 14 15  2  0
 15 16  1  0
 16 17  2  0
 18 19  1  0
 19 20  2  0
 19 24  1  0
 20 21  1  0
 21 22  2  0
 22 23  1  0
 22 25  1  0
 23 24  2  0
 25 26  1  0
 25 31  1  0
 26 27  1  0
 27 28  1  0
 28 29  1  0
 28 30  1  0
 30 31  1  0
  1 32  1  0
  1 33  1  0
  1 34  1  0
  4 35  1  0
  5 36  1  0
  6 37  1  0
  7 38  1  0
 10 39  1  0
 16 40  1  0
 17 41  1  0
 18 42  1  0
 20 43  1  0
 21 44  1  0
 23 45  1  0
 24 46  1  0
 26 47  1  0
 26 48  1  0
 27 49  1  0
 27 50  1  0
 28 51  1  0
 29 52  1  0
 29 53  1  0
 29 54  1  0
 30 55  1  0
 30 56  1  0
 31 57  1  0
 31 58  1  0
M  CHG  1  28   1
M  END
